# AFLOW.org Repositories
# NO_RECURSION  [ORC,ORC,oP84] (STD_CONV doi:10.1016/j.commatsci.2010.05.010)
data_NO_RECURSION
_pd_phase_name NO_RECURSION
_cell_length_a  6.9287374360
_cell_length_b  11.6063083901
_cell_length_c  17.9644096408
_cell_angle_alpha  90.0000000000
_cell_angle_beta  90.0000000000
_cell_angle_gamma  90.0000000000
_symmetry_space_group_name_H-M  'P1'
_symmetry_Int_Tables_Number  1
loop_
_symmetry_equiv_pos_site_id
_symmetry_equiv_pos_as_xyz
  1  x,y,z
loop_
 _atom_site_label
 _atom_site_occupancy
 _atom_site_fract_x
 _atom_site_fract_y
 _atom_site_fract_z
 _atom_site_thermal_displace_type
 _atom_site_B_iso_or_equiv
 _atom_site_type_symbol
As1 1.0 0.2831674792 0.4966366120 0.3695471297  Biso 1.0 As
As2 1.0 0.2168325208 0.5033633880 0.8695471297  Biso 1.0 As
As3 1.0 0.7168325208 0.9966366120 0.1304528703  Biso 1.0 As
As4 1.0 0.7831674792 0.0033633880 0.6304528703  Biso 1.0 As
C5 1.0 0.5248546417 0.9504711573 0.8704122184  Biso 1.0 C
C6 1.0 0.9751453583 0.0495288427 0.3704122184  Biso 1.0 C
C7 1.0 0.4751453583 0.4504711573 0.6295877816  Biso 1.0 C
C8 1.0 0.0248546417 0.5495288427 0.1295877816  Biso 1.0 C
C9 1.0 0.0069084286 0.1127200803 0.8733131932  Biso 1.0 C
C10 1.0 0.4930915714 0.8872799197 0.3733131932  Biso 1.0 C
C11 1.0 0.9930915714 0.6127200803 0.6266868068  Biso 1.0 C
C12 1.0 0.5069084286 0.3872799197 0.1266868068  Biso 1.0 C
C13 1.0 0.1603446463 0.9033061791 0.8069368498  Biso 1.0 C
C14 1.0 0.3396553537 0.0966938209 0.3069368498  Biso 1.0 C
C15 1.0 0.8396553537 0.4033061791 0.6930631502  Biso 1.0 C
C16 1.0 0.6603446463 0.5966938209 0.1930631502  Biso 1.0 C
C17 1.0 0.3860899426 0.1609291933 0.9339516560  Biso 1.0 C
C18 1.0 0.1139100574 0.8390708067 0.4339516560  Biso 1.0 C
C19 1.0 0.6139100574 0.6609291933 0.5660483440  Biso 1.0 C
C20 1.0 0.8860899426 0.3390708067 0.0660483440  Biso 1.0 C
C21 1.0 0.3346166892 0.1239400197 0.7801472246  Biso 1.0 C
C22 1.0 0.1653833108 0.8760599803 0.2801472246  Biso 1.0 C
C23 1.0 0.6653833108 0.6239400197 0.7198527754  Biso 1.0 C
C24 1.0 0.8346166892 0.3760599803 0.2198527754  Biso 1.0 C
F25 1.0 0.3865511285 0.7743382979 0.0312502834  Biso 1.0 F
F26 1.0 0.1134488715 0.2256617021 0.5312502834  Biso 1.0 F
F27 1.0 0.6134488715 0.2743382979 0.4687497166  Biso 1.0 F
F28 1.0 0.8865511285 0.7256617021 0.9687497166  Biso 1.0 F
F29 1.0 0.2337734556 0.3480290219 0.3825834839  Biso 1.0 F
F30 1.0 0.2662265444 0.6519709781 0.8825834839  Biso 1.0 F
F31 1.0 0.7662265444 0.8480290219 0.1174165161  Biso 1.0 F
F32 1.0 0.7337734556 0.1519709781 0.6174165161  Biso 1.0 F
F33 1.0 0.2590520738 0.4798709597 0.2717164137  Biso 1.0 F
F34 1.0 0.2409479262 0.5201290403 0.7717164137  Biso 1.0 F
F35 1.0 0.7409479262 0.9798709597 0.2282835863  Biso 1.0 F
F36 1.0 0.7590520738 0.0201290403 0.7282835863  Biso 1.0 F
F37 1.0 0.5352784001 0.4670240360 0.3608768712  Biso 1.0 F
F38 1.0 0.9647215999 0.5329759640 0.8608768712  Biso 1.0 F
F39 1.0 0.4647215999 0.9670240360 0.1391231288  Biso 1.0 F
F40 1.0 0.0352784001 0.0329759640 0.6391231288  Biso 1.0 F
F41 1.0 0.3308368266 0.6457814875 0.3573624398  Biso 1.0 F
F42 1.0 0.1691631734 0.3542185125 0.8573624398  Biso 1.0 F
F43 1.0 0.6691631734 0.1457814875 0.1426375602  Biso 1.0 F
F44 1.0 0.8308368266 0.8542185125 0.6426375602  Biso 1.0 F
F45 1.0 0.0325958964 0.5279337989 0.3769999210  Biso 1.0 F
F46 1.0 0.4674041036 0.4720662011 0.8769999210  Biso 1.0 F
F47 1.0 0.9674041036 0.0279337989 0.1230000790  Biso 1.0 F
F48 1.0 0.5325958964 0.9720662011 0.6230000790  Biso 1.0 F
F49 1.0 0.3116935741 0.5131243417 0.4673337767  Biso 1.0 F
F50 1.0 0.1883064259 0.4868756583 0.9673337767  Biso 1.0 F
F51 1.0 0.6883064259 0.0131243417 0.0326662233  Biso 1.0 F
F52 1.0 0.8116935741 0.9868756583 0.5326662233  Biso 1.0 F
N53 1.0 0.1985983730 0.9463048277 0.9687913600  Biso 1.0 N
N54 1.0 0.3014016270 0.0536951723 0.4687913600  Biso 1.0 N
N55 1.0 0.8014016270 0.4463048277 0.5312086400  Biso 1.0 N
N56 1.0 0.6985983730 0.5536951723 0.0312086400  Biso 1.0 N
O57 1.0 0.6686995956 0.9011345882 0.8714750754  Biso 1.0 O
O58 1.0 0.8313004044 0.0988654118 0.3714750754  Biso 1.0 O
O59 1.0 0.3313004044 0.4011345882 0.6285249246  Biso 1.0 O
O60 1.0 0.1686995956 0.5988654118 0.1285249246  Biso 1.0 O
O61 1.0 0.8586881338 0.1571553347 0.8739202550  Biso 1.0 O
O62 1.0 0.6413118662 0.8428446653 0.3739202550  Biso 1.0 O
O63 1.0 0.1413118662 0.6571553347 0.6260797450  Biso 1.0 O
O64 1.0 0.3586881338 0.3428446653 0.1260797450  Biso 1.0 O
O65 1.0 0.1051818511 0.8283379565 0.7711906044  Biso 1.0 O
O66 1.0 0.3948181489 0.1716620435 0.2711906044  Biso 1.0 O
O67 1.0 0.8948181489 0.3283379565 0.7288093956  Biso 1.0 O
O68 1.0 0.6051818511 0.6716620435 0.2288093956  Biso 1.0 O
O69 1.0 0.4569715029 0.2312090707 0.9696482360  Biso 1.0 O
O70 1.0 0.0430284971 0.7687909293 0.4696482360  Biso 1.0 O
O71 1.0 0.5430284971 0.7312090707 0.5303517640  Biso 1.0 O
O72 1.0 0.9569715029 0.2687909293 0.0303517640  Biso 1.0 O
O73 1.0 0.3726800977 0.1792362721 0.7288792546  Biso 1.0 O
O74 1.0 0.1273199023 0.8207637279 0.2288792546  Biso 1.0 O
O75 1.0 0.6273199023 0.6792362721 0.7711207454  Biso 1.0 O
O76 1.0 0.8726800977 0.3207637279 0.2711207454  Biso 1.0 O
Re77 1.0 0.2683932830 0.0336083320 0.8707086408  Biso 1.0 Re
Re78 1.0 0.2316067170 0.9663916680 0.3707086408  Biso 1.0 Re
Re79 1.0 0.7316067170 0.5336083320 0.6292913592  Biso 1.0 Re
Re80 1.0 0.7683932830 0.4663916680 0.1292913592  Biso 1.0 Re
S81 1.0 0.2057919694 0.8714344285 0.0329941961  Biso 1.0 S
S82 1.0 0.2942080306 0.1285655715 0.5329941961  Biso 1.0 S
S83 1.0 0.7942080306 0.3714344285 0.4670058039  Biso 1.0 S
S84 1.0 0.7057919694 0.6285655715 0.9670058039  Biso 1.0 S
